*MODEL INPUT FILE            A     1     1     1     1     0
*FILES              
MODEL          MZCER046
FILEX          MZhi7101.MZX                                                                                 
FILEA          MZhi7101.MZA                                                                                 
FILET          MZhi7101.MZT                                                                                 
SPECIES        MZCER046.SPE                                                                                 
ECOTYPE        MZCER046.ECO                                                                                 
CULTIVAR       MZCER046.CUL                                                                                 
PESTS          MZCER046.PST /                                                                               
SOILS          SB.SOL                                                                                       
WEATHER        NBAO7101.WTH                                                                                 
OUTPUT         OVERVIEW
*SIMULATION CONTROL 
                   1     1     S 1971263  2150 JUN-SOIL1-MZ1-hi         
                   Y     Y     N     N     N     N     N     Y     M
                   M     M     E     R     S     R     R     1     G     S     2
                   R     D     D     N     M
                   N     Y     Y     1     Y     N     Y     Y     N     N     Y     N     N
!AUTOMATIC MANAGEM  
               1971000 1971000   40.  100.   30.   40.   12.
                 30.   50.  100. GS000 IR001  10.0 1.000
                 30.   50.   25. FE001 GS000
                100.     1   20.
                     0       0  100.    0.
*EXP.DETAILS        
  1MZhi7101 MZ alado basin, Early high fertilization maize (Mz1hi)         
*TREATMENTS         
  1 1 0 0 Mz1hi                    
*CULTIVARS          
   MZ UAIC10 DK 682   120 GSP
*FIELDS             
   JUNIN    NBAO7101   0.0    0.          0. 100.0       CLOSA  -99. SBJUSB0001
           0.00000         0.00000      0.00               1.0  100.   1.0   0.0   -99   -99
*INITIAL CONDITIONS 
   SB    1971263  2000     0  1.00  1.00   0.0  3000  1.50  0.00    0.    0.
      5. 0.225 0.500  14.0
     15. 0.225 0.500  14.0
     30. 0.229 0.500  7.00
     45. 0.229 0.500  3.50
     57. 0.229 0.500  1.80
     70. 0.229 0.500  1.80
     90. 0.207 0.500 0.900
    108. 0.207 0.200 0.400
    126. 0.207 0.200 0.400
    150. 0.205 0.200 0.200
    200. 0.205 0.200 0.100
    250. 0.205 0.200 0.100
*PLANTING DETAILS   
   1971263     -99   7.0   7.0     S     R   52.    0.   4.0  -99.  -99. -99.0 -99.0   0.0
*IRRIGATION         
   1.000   30.   50.  100. GS007 IR001  10.0
         1 IR001  10.0
*FERTILIZERS        
         1 FE005 AP001   10.   90.    0.    0.    0.    0.   -99
*RESIDUES           
*CHEMICALS          
*TILLAGE            
*ENVIRONMENT        
*HARVEST            
*SOIL               
 SBJUSB0001  SCS         CLOSA  -99. JUNIN                                             
 Junin       Argentina    34.000  61.000 HAPLUDOL TIPICO                                   
 -99    0.13   9.0  0.60   76.  1.00  1.00 IB001 IB001 IB001 -99  
    5.       0.104 0.225 0.340 1.000  -99.  1.35 1.100  15.2  26.3   0.0  -9.0  6.10  5.60 14.20-99.00
   15.       0.104 0.225 0.340 1.000  -99.  1.35 1.100  15.2  26.3   0.0  -9.0  6.10  5.60 14.20-99.00
   30.       0.108 0.229 0.340 1.000  -99.  1.35 0.800  16.3  25.0   0.0  -9.0  6.40  5.90  1.00-99.00
   45.       0.108 0.229 0.339 0.800  -99.  1.35 0.400  16.3  24.4   0.0  -9.0  7.30  6.20 12.60-99.00
   57.       0.108 0.229 0.339 0.600  -99.  1.35 0.150  16.3  24.4   0.0  -9.0  7.30  6.20 12.60-99.00
   70.       0.108 0.229 0.339 0.600  -99.  1.35 0.150  16.3  24.4   0.0  -9.0  7.30  6.20 12.60-99.00
   90.       0.089 0.207 0.326 0.500  -99.  1.39 0.100  11.8  21.6   0.0  -9.0  7.50  6.50 11.70-99.00
  108.       0.089 0.207 0.326 0.400  -99.  1.39 0.050  11.8  21.6   0.0  -9.0  7.50  6.50 11.70-99.00
  126.       0.089 0.207 0.326 0.400  -99.  1.39 0.050  11.8  21.6   0.0  -9.0  7.50  6.50 11.70-99.00
  150.       0.086 0.205 0.325 0.300  -99.  1.39 0.050  11.3  21.5   0.0  -9.0  7.90  6.80 10.80-99.00
  200.       0.086 0.205 0.325 0.200  -99.  1.39 0.050  11.3  21.5   0.0  -9.0  7.90  6.80 10.80-99.00
  250.       0.086 0.205 0.325 0.200  -99.  1.39 0.050  11.3  21.5   0.0  -9.0  7.90  6.80 10.80-99.00
                    
    5.-99.00 -99.0 -99.0 -99.0 -99.0 -99.0 -99.0 -99.0 -99.0 -99.0-99.00 -99.0 -99.0 -99.0 -99.0 -99.0  -99.
   15.-99.00 -99.0 -99.0 -99.0 -99.0 -99.0 -99.0 -99.0 -99.0 -99.0-99.00 -99.0 -99.0 -99.0 -99.0 -99.0  -99.
   30.-99.00 -99.0 -99.0 -99.0 -99.0 -99.0 -99.0 -99.0 -99.0 -99.0-99.00 -99.0 -99.0 -99.0 -99.0 -99.0  -99.
   45.-99.00 -99.0 -99.0 -99.0 -99.0 -99.0 -99.0 -99.0 -99.0 -99.0-99.00 -99.0 -99.0 -99.0 -99.0 -99.0  -99.
   57.-99.00 -99.0 -99.0 -99.0 -99.0 -99.0 -99.0 -99.0 -99.0 -99.0-99.00 -99.0 -99.0 -99.0 -99.0 -99.0  -99.
   70.-99.00 -99.0 -99.0 -99.0 -99.0 -99.0 -99.0 -99.0 -99.0 -99.0-99.00 -99.0 -99.0 -99.0 -99.0 -99.0  -99.
   90.-99.00 -99.0 -99.0 -99.0 -99.0 -99.0 -99.0 -99.0 -99.0 -99.0-99.00 -99.0 -99.0 -99.0 -99.0 -99.0  -99.
  108.-99.00 -99.0 -99.0 -99.0 -99.0 -99.0 -99.0 -99.0 -99.0 -99.0-99.00 -99.0 -99.0 -99.0 -99.0 -99.0  -99.
  126.-99.00 -99.0 -99.0 -99.0 -99.0 -99.0 -99.0 -99.0 -99.0 -99.0-99.00 -99.0 -99.0 -99.0 -99.0 -99.0  -99.
  150.-99.00 -99.0 -99.0 -99.0 -99.0 -99.0 -99.0 -99.0 -99.0 -99.0-99.00 -99.0 -99.0 -99.0 -99.0 -99.0  -99.
  200.-99.00 -99.0 -99.0 -99.0 -99.0 -99.0 -99.0 -99.0 -99.0 -99.0-99.00 -99.0 -99.0 -99.0 -99.0 -99.0  -99.
  250.-99.00 -99.0 -99.0 -99.0 -99.0 -99.0 -99.0 -99.0 -99.0 -99.0-99.00 -99.0 -99.0 -99.0 -99.0 -99.0  -99.
                    
    5.-99.00-99.00-99.00-99.00
   15.-99.00-99.00-99.00-99.00
   30.-99.00-99.00-99.00-99.00
   45.-99.00-99.00-99.00-99.00
   57.-99.00-99.00-99.00-99.00
   70.-99.00-99.00-99.00-99.00
   90.-99.00-99.00-99.00-99.00
  108.-99.00-99.00-99.00-99.00
  126.-99.00-99.00-99.00-99.00
  150.-99.00-99.00-99.00-99.00
  200.-99.00-99.00-99.00-99.00
  250.-99.00-99.00-99.00-99.00
*CULTIVAR           
UAIC10 DK 682   120 GSP IB0001  245.0 0.000 820.0 950.0  7.50 45.00
